<?xml version="1.0" encoding="UTF-8"?>

<!-- generated on 2024-04-23 17:11:53 by Eclipse SUMO netedit Version 1.17.0
<configuration xmlns:xsi="http://www.w3.org/2001/XMLSchema-instance" xsi:noNamespaceSchemaLocation="http://sumo.dlr.de/xsd/netconvertConfiguration.xsd">

    <input>
        <sumocfg-file value="E:\sumo program\111\1.sumocfg"/>
        <additional-files value="E:\sumo program\111\../../sumo program/111/additional.xml"/>
        <route-files value="E:\sumo program\111\../../sumo program/111/1.rou.xml"/>
        <sumo-net-file value="E:\sumo program\111\../../sumo program/111/1.net.xml"/>
    </input>

    <output>
        <output-file value="E:\sumo program\111\../../sumo program/111/1.net.xml"/>
    </output>

    <processing>
        <geometry.min-radius.fix.railways value="false"/>
        <geometry.max-grade.fix value="false"/>
        <offset.disable-normalization value="true"/>
        <lefthand value="0"/>
    </processing>

    <junctions>
        <no-turnarounds value="true"/>
        <junctions.corner-detail value="5"/>
        <junctions.limit-turn-speed value="5.50"/>
        <rectangular-lane-cut value="0"/>
    </junctions>

    <pedestrian>
        <walkingareas value="0"/>
    </pedestrian>

</configuration>
-->

<net version="1.16" junctionCornerDetail="5" limitTurnSpeed="5.50" xmlns:xsi="http://www.w3.org/2001/XMLSchema-instance" xsi:noNamespaceSchemaLocation="http://sumo.dlr.de/xsd/net_file.xsd">

    <location netOffset="0.00,0.00" convBoundary="-300.00,0.00,300.00,300.00" origBoundary="-10000000000.00,-10000000000.00,10000000000.00,10000000000.00" projParameter="!"/>

    <edge id=":J1_0" function="internal">
        <lane id=":J1_0_0" index="0" speed="6.51" length="9.03" shape="-11.20,16.80 -11.55,14.35 -12.60,12.60 -14.35,11.55 -16.80,11.20"/>
        <lane id=":J1_0_1" index="1" speed="8.00" length="14.19" shape="-8.00,16.80 -8.55,12.95 -10.20,10.20 -12.95,8.55 -16.80,8.00"/>
    </edge>
    <edge id=":J1_2" function="internal">
        <lane id=":J1_2_0" index="0" speed="12.28" length="34.84" shape="-4.80,16.80 -3.45,7.35 0.60,0.60 7.35,-3.45 16.80,-4.80"/>
        <lane id=":J1_2_1" index="1" speed="11.36" length="29.67" shape="-1.60,16.80 -0.45,8.75 3.00,3.00 8.75,-0.45 16.80,-1.60"/>
    </edge>
    <edge id=":J1_4" function="internal">
        <lane id=":J1_4_0" index="0" speed="6.51" length="9.03" shape="16.80,11.20 14.35,11.55 12.60,12.60 11.55,14.35 11.20,16.80"/>
    </edge>
    <edge id=":J1_5" function="internal">
        <lane id=":J1_5_0" index="0" speed="80.00" length="33.60" shape="16.80,8.00 -16.80,8.00"/>
        <lane id=":J1_5_1" index="1" speed="80.00" length="33.60" shape="16.80,4.80 -16.80,4.80"/>
        <lane id=":J1_5_2" index="2" speed="80.00" length="33.60" shape="16.80,1.60 -16.80,1.60"/>
    </edge>
    <edge id=":J1_8" function="internal">
        <lane id=":J1_8_0" index="0" speed="80.00" length="33.60" shape="-16.80,-11.20 16.80,-11.20"/>
        <lane id=":J1_8_1" index="1" speed="80.00" length="33.60" shape="-16.80,-8.00 16.80,-8.00"/>
        <lane id=":J1_8_2" index="2" speed="80.00" length="33.60" shape="-16.80,-4.80 16.80,-4.80"/>
    </edge>
    <edge id=":J1_11" function="internal">
        <lane id=":J1_11_0" index="0" speed="11.36" length="29.67" shape="-16.80,-1.60 -8.75,-0.45 -3.00,3.00 0.45,8.75 1.60,16.80"/>
    </edge>

    <edge id="-E0" from="J1" to="J0" priority="-1">
        <lane id="-E0_0" index="0" speed="80.00" length="283.20" shape="-16.80,11.20 -300.00,11.20"/>
        <lane id="-E0_1" index="1" speed="80.00" length="283.20" shape="-16.80,8.00 -300.00,8.00"/>
        <lane id="-E0_2" index="2" speed="80.00" length="283.20" shape="-16.80,4.80 -300.00,4.80"/>
        <lane id="-E0_3" index="3" speed="80.00" length="283.20" shape="-16.80,1.60 -300.00,1.60"/>
    </edge>
    <edge id="-E1" from="J2" to="J1" priority="-1">
        <lane id="-E1_0" index="0" speed="80.00" length="283.20" shape="-11.20,300.00 -11.20,16.80"/>
        <lane id="-E1_1" index="1" speed="80.00" length="283.20" shape="-8.00,300.00 -8.00,16.80"/>
        <lane id="-E1_2" index="2" speed="80.00" length="283.20" shape="-4.80,300.00 -4.80,16.80"/>
        <lane id="-E1_3" index="3" speed="80.00" length="283.20" shape="-1.60,300.00 -1.60,16.80"/>
    </edge>
    <edge id="-E2" from="J3" to="J1" priority="-1">
        <lane id="-E2_0" index="0" speed="80.00" length="283.20" shape="300.00,11.20 16.80,11.20"/>
        <lane id="-E2_1" index="1" speed="80.00" length="283.20" shape="300.00,8.00 16.80,8.00"/>
        <lane id="-E2_2" index="2" speed="80.00" length="283.20" shape="300.00,4.80 16.80,4.80"/>
        <lane id="-E2_3" index="3" speed="80.00" length="283.20" shape="300.00,1.60 16.80,1.60"/>
    </edge>
    <edge id="E0" from="J0" to="J1" priority="-1">
        <lane id="E0_0" index="0" speed="80.00" length="283.20" shape="-300.00,-11.20 -16.80,-11.20"/>
        <lane id="E0_1" index="1" speed="80.00" length="283.20" shape="-300.00,-8.00 -16.80,-8.00"/>
        <lane id="E0_2" index="2" speed="80.00" length="283.20" shape="-300.00,-4.80 -16.80,-4.80"/>
        <lane id="E0_3" index="3" speed="80.00" length="283.20" shape="-300.00,-1.60 -16.80,-1.60"/>
    </edge>
    <edge id="E1" from="J1" to="J2" priority="-1">
        <lane id="E1_0" index="0" speed="80.00" length="283.20" shape="11.20,16.80 11.20,300.00"/>
        <lane id="E1_1" index="1" speed="80.00" length="283.20" shape="8.00,16.80 8.00,300.00"/>
        <lane id="E1_2" index="2" speed="80.00" length="283.20" shape="4.80,16.80 4.80,300.00"/>
        <lane id="E1_3" index="3" speed="80.00" length="283.20" shape="1.60,16.80 1.60,300.00"/>
    </edge>
    <edge id="E2" from="J1" to="J3" priority="-1">
        <lane id="E2_0" index="0" speed="80.00" length="283.20" shape="16.80,-11.20 300.00,-11.20"/>
        <lane id="E2_1" index="1" speed="80.00" length="283.20" shape="16.80,-8.00 300.00,-8.00"/>
        <lane id="E2_2" index="2" speed="80.00" length="283.20" shape="16.80,-4.80 300.00,-4.80"/>
        <lane id="E2_3" index="3" speed="80.00" length="283.20" shape="16.80,-1.60 300.00,-1.60"/>
    </edge>

    <tlLogic id="J1" type="static" programID="0" offset="0">
        <phase duration="55" state="rrrrrGGGGGGGGGGrr"/>
        <phase duration="4"  state="rrrrrGGyyyyyyyyrr"/>
        <phase duration="18" state="rrrrrGGrrrrrrrrGG"/>
        <phase duration="4"  state="rrrrrGGrrrrrrrryy"/>
        <phase duration="25" state="GGGGGGGrrrrrrrrrr"/>
        <phase duration="4"  state="yyyyyyyrrrrrrrrrr"/>
    </tlLogic>

    <junction id="J0" type="dead_end" x="-300.00" y="0.00" incLanes="-E0_0 -E0_1 -E0_2 -E0_3" intLanes="" shape="-300.00,0.00 -300.00,12.80 -300.00,0.00"/>
    <junction id="J1" type="traffic_light" x="0.00" y="0.00" incLanes="-E1_0 -E1_1 -E1_2 -E1_3 -E2_0 -E2_1 -E2_2 -E2_3 E0_0 E0_1 E0_2 E0_3" intLanes=":J1_0_0 :J1_0_1 :J1_2_0 :J1_2_1 :J1_4_0 :J1_5_0 :J1_5_1 :J1_5_2 :J1_8_0 :J1_8_1 :J1_8_2 :J1_11_0" shape="-12.80,16.80 12.80,16.80 13.24,14.58 13.80,13.80 14.58,13.24 15.58,12.91 16.80,12.80 16.80,-12.80 -16.80,-12.80 -16.80,12.80 -14.58,13.24 -13.80,13.80 -13.24,14.58 -12.91,15.58">
        <request index="0"  response="000011100000" foes="000011100000" cont="0"/>
        <request index="1"  response="000011100000" foes="000011100000" cont="0"/>
        <request index="2"  response="111111100000" foes="111111100000" cont="0"/>
        <request index="3"  response="111111100000" foes="111111100000" cont="0"/>
        <request index="4"  response="000000000000" foes="000000000000" cont="0"/>
        <request index="5"  response="000000000000" foes="100000001111" cont="0"/>
        <request index="6"  response="000000000000" foes="100000001111" cont="0"/>
        <request index="7"  response="000000000000" foes="100000001111" cont="0"/>
        <request index="8"  response="000000000000" foes="000000001100" cont="0"/>
        <request index="9"  response="000000000000" foes="000000001100" cont="0"/>
        <request index="10" response="000000000000" foes="000000001100" cont="0"/>
        <request index="11" response="000011100000" foes="000011101100" cont="0"/>
    </junction>
    <junction id="J2" type="dead_end" x="0.00" y="300.00" incLanes="E1_0 E1_1 E1_2 E1_3" intLanes="" shape="0.00,300.00 12.80,300.00 0.00,300.00"/>
    <junction id="J3" type="dead_end" x="300.00" y="0.00" incLanes="E2_0 E2_1 E2_2 E2_3" intLanes="" shape="300.00,0.00 300.00,-12.80 300.00,0.00"/>

    <connection from="-E1" to="-E0" fromLane="0" toLane="0" via=":J1_0_0" tl="J1" linkIndex="0" dir="r" state="o"/>
    <connection from="-E1" to="-E0" fromLane="1" toLane="1" via=":J1_0_1" tl="J1" linkIndex="1" dir="r" state="o"/>
    <connection from="-E1" to="E2" fromLane="2" toLane="2" via=":J1_2_0" tl="J1" linkIndex="3" dir="l" state="o"/>
    <connection from="-E1" to="E2" fromLane="3" toLane="3" via=":J1_2_1" tl="J1" linkIndex="4" dir="l" state="o"/>
    <connection from="-E2" to="E1" fromLane="0" toLane="0" via=":J1_4_0" tl="J1" linkIndex="5" dir="r" state="O"/>
    <connection from="-E2" to="-E0" fromLane="1" toLane="1" via=":J1_5_0" tl="J1" linkIndex="8" dir="s" state="O"/>
    <connection from="-E2" to="-E0" fromLane="2" toLane="2" via=":J1_5_1" tl="J1" linkIndex="9" dir="s" state="O"/>
    <connection from="-E2" to="-E0" fromLane="3" toLane="3" via=":J1_5_2" tl="J1" linkIndex="10" dir="s" state="O"/>
    <connection from="E0" to="E2" fromLane="0" toLane="0" via=":J1_8_0" tl="J1" linkIndex="11" dir="s" state="O"/>
    <connection from="E0" to="E2" fromLane="1" toLane="1" via=":J1_8_1" tl="J1" linkIndex="12" dir="s" state="O"/>
    <connection from="E0" to="E2" fromLane="2" toLane="2" via=":J1_8_2" tl="J1" linkIndex="13" dir="s" state="O"/>
    <connection from="E0" to="E1" fromLane="3" toLane="3" via=":J1_11_0" tl="J1" linkIndex="16" dir="l" state="o"/>

    <connection from=":J1_0" to="-E0" fromLane="0" toLane="0" dir="r" state="M"/>
    <connection from=":J1_0" to="-E0" fromLane="1" toLane="1" dir="r" state="M"/>
    <connection from=":J1_2" to="E2" fromLane="0" toLane="2" dir="l" state="M"/>
    <connection from=":J1_2" to="E2" fromLane="1" toLane="3" dir="l" state="M"/>
    <connection from=":J1_4" to="E1" fromLane="0" toLane="0" dir="r" state="M"/>
    <connection from=":J1_5" to="-E0" fromLane="0" toLane="1" dir="s" state="M"/>
    <connection from=":J1_5" to="-E0" fromLane="1" toLane="2" dir="s" state="M"/>
    <connection from=":J1_5" to="-E0" fromLane="2" toLane="3" dir="s" state="M"/>
    <connection from=":J1_8" to="E2" fromLane="0" toLane="0" dir="s" state="M"/>
    <connection from=":J1_8" to="E2" fromLane="1" toLane="1" dir="s" state="M"/>
    <connection from=":J1_8" to="E2" fromLane="2" toLane="2" dir="s" state="M"/>
    <connection from=":J1_11" to="E1" fromLane="0" toLane="3" dir="l" state="M"/>

</net>
